[TITLE]


[JUNCTIONS]
;ID              	Elev        	Demand      	Pattern         
 1               	0           	0           	1               	;

[RESERVOIRS]
;ID              	Head        	Pattern         
 Uppermoor       	20          	                	;

[TANKS]
;ID              	Elevation   	InitLevel   	MinLevel    	MaxLevel    	Diameter    	MinVol      	VolCurve

[PIPES]
;ID              	Node1           	Node2           	Length      	Diameter    	Roughness   	MinorLoss   	Status
 1               	Uppermoor       	1               	610         	250         	0.075       	0           	Open  	;

[PUMPS]
;ID              	Node1           	Node2           	Parameters

[VALVES]
;ID              	Node1           	Node2           	Diameter    	Type	Setting     	MinorLoss   

[TAGS]

[DEMANDS]
;Junction        	Demand      	Pattern         	Category
 1               	0           	1               	;  
 1               	1           	Flow            	;  

[STATUS]
;ID              	Status/Setting

[PATTERNS]
;ID              	Multipliers
;
 1               	1           
;
 Flow            	12          	12          	12          	12          	12          	12          
 Flow            	12          	12          	12          	12          	12          	12          
 Flow            	12.86679644 	14.22721433 	15.33979819 	15.62052097 	17.12805294 	19.26144917 
 Flow            	19.19616167 	19.01066639 	17.91870028 	17.616375   	17.88286528 	17.7243725  
 Flow            	14.49583578 	13.38848125 	13.3884815  	13.69080303 	13.67067703 	13.66331428 
 Flow            	13.63091653 	13.65840528 	13.65055153 	13.67313153 	13.66724103 	13.66085953 
 Flow            	13.66675003 	13.402717   	13.67362253 	13.64858778 	13.65104253 	13.66625928 
 Flow            	13.356575   	13.65644178 	13.65791453 	13.64466078 	13.62060828 	13.66527753 
 Flow            	13.65006078 	13.66331403 	13.65742353 	13.66184128 	13.66135053 	13.65840528 
 Flow            	13.66085978 	13.37277375 	13.65742378 	13.3874995  	13.36933775 	13.65889653 
 Flow            	14.80263103 	17.90986528 	17.35970722 	17.37885222 	17.05738944 	17.65712    
 Flow            	17.42843222 	17.6978625  	17.7346775  	17.36167472 	17.65025    	17.34498472 
 Flow            	17.597235   	17.59576    	17.36461722 	17.36167222 	17.36166972 	17.36412722 
 Flow            	17.43235722 	17.6566275  	17.34694722 	17.6001825  	17.541275   	17.34694472 
 Flow            	17.47898972 	17.34988972 	17.41272472 	17.38474472 	17.38768972 	17.6306125  
 Flow            	17.630125   	17.31405472 	17.27626222 	17.35823222 	17.29442222 	17.34645472 
 Flow            	17.36952472 	17.35921472 	17.32289222 	17.38278222 	17.37590722 	17.27969722 
 Flow            	17.39357972 	17.37983472 	17.28263722 	17.23895222 	17.37443472 	17.34939972 
 Flow            	17.36461472 	17.31258472 	17.27184222 	17.29098722 	17.31945472 	17.32436472 
 Flow            	17.31454972 	17.29785722 	17.30963972 	17.36952472 	17.29589472 	18.10043722 
 Flow            	19.15096444 	19.41008472 	19.12789444 	19.46555972 	19.21330694 	19.24570194 
 Flow            	19.37327222 	19.24128444 	19.24619194 	19.11660194 	19.12593194 	19.16421694 
 Flow            	19.02284694 	19.19956194 	19.17452694 	19.21625194 	19.18581194 	19.05916944 
 Flow            	18.99388194 	19.09843944 	19.12936694 	19.31442444 	19.08763944 	19.17894444 
 Flow            	19.15930694 	18.99142944 	19.04198944 	19.20839694 	19.13230944 	19.18384944 
 Flow            	19.14851194 	19.01351694 	19.06849944 	19.37229222 	19.24619444 	19.01450194 
 Flow            	19.04837194 	19.19955944 	19.25551944 	19.15440194 	18.91730444 	19.10383944 
 Flow            	19.12200444 	18.97621444 	19.10776694 	18.77403167 	18.59780667 	18.76372167 
 Flow            	18.73868417 	18.75292167 	18.49717667 	18.50306667 	18.51730417 	18.36469889 
 Flow            	18.51435667 	18.52761167 	18.21056389 	18.09815139 	17.94058139 	18.03335889 
 Flow            	18.11042139 	17.76049111 	14.04653611 	12.45457389 	12.44868389 	12.72793417 
 Flow            	12.72597167 	12.72499167 	12.59583419 	11.71231792 	11.68924687 	11.66666667 
 Flow            	11.94444444 	11.66666667 	11.66666667 	11.66666667 	11.66666667 	11.66666667 
 Flow            	11.66666667 	11.66666667 	11.66666667 	11.66666667 	11.66666667 	11.66666667 
 Flow            	11.66666667 	11.66666667 	11.66666667 	11.66666667 	11.66666667 	11.66666667 
 Flow            	11.66666667 	11.66666667 	11.66666667 	11.66666667 	11.66666667 	11.66666667 
 Flow            	11.66666667 	11.66666667 	11.66666667 	11.66666667 	11.66666667 	11.66666667 
 Flow            	11.66666667 	11.66666667 	11.66666667 	11.66666667 	11.66666667 	11.66666667 
 Flow            	11.66666667 	11.66666667 	11.66666667 	11.66666667 	11.66666667 	11.66666667 
 Flow            	11.66666667 	11.66666667 	11.66666667 	11.66666667 	11.66666667 	11.66666667 
 Flow            	11.66666667 
;
 trial2          	0.060868356 	0.037306413 	0.054977871 	0.056941368 	0.060868356 	0.043196898 
 trial2          	0.062831856 	0.068722337 	0.039269909 	0.045160394 	0.060868356 	0.062831856 
 trial2          	0.053014375 	0.056941368 	0.068722337 	0.070685834 	0.041233402 	0.043196898 
 trial2          	0.043196898 	0.051050879 	0.074612826 	0.062831856 	0.033379421 	0.031415928 
 trial2          	0.068722337 	0.031415928 	0.086393796 	0.066758841 	0.051050879 	0.049087387 
 trial2          	0.053014375 	0.054977871 	0.062831856 	0.068722337 	0.07264933  	0.045160394 
 trial2          	0.035342917 	0.064795345 	0.064795345 	0.070685834 	0.051050879 	0.066758841 
 trial2          	0.062831856 	0.064795345 	0.060868356 	0.086393796 	0.064795345 	0.074612826 
 trial2          	0.051050879 	0.039269909 	0.045160394 	0.086393796 	0.060868356 	0.035342917 
 trial2          	0.049087387 	0.054977871 	0.062831856 	0.051050879 	0.064795345 	0.070685834 
 trial2          	0.037306413 	0.054977871 	0.051050879 	0.051050879 	0.049087387 	0.035342917 
 trial2          	0.058904864 	0.07264933  	0.064795345 	0.058904864 	0.04712389  	0.058904864 
 trial2          	0.080503315 	0.066758841 	0.051050879 	0.0844303   	0.053014375 	0.037306413 
 trial2          	0.023561945 	0.029452432 	0.023561945 	0.031415928 	0.056941368 	0.04712389  
 trial2          	0.035342917 	0.043196898 	0.054977871 	0.074612826 	0.054977871 	0.074612826 
 trial2          	0.058904864 	0.07264933  	0.060868356 	0.029452432 	0.078539819 	0.043196898 
 trial2          	0.060868356 	0.035342917 	0.058904864 	0.058904864 	0.07264933  	0.064795345 
 trial2          	0.058904864 	0.070685834 	0.043196898 	0.051050879 	0.086393796 	0.054977871 
 trial2          	0.049087387 	0.058904864 	0.053014375 	0.080503315 	0.066758841 	0.054977871 
 trial2          	0.043196898 	0.043196898 	0.035342917 	0.029452432 	0.054977871 	0.053014375 
 trial2          	0.058904864 	0.053014375 	0.062831856 	0.04712389  	0.062831856 	0.015707964 
 trial2          	0.041233402 	0.031415928 	0.070685834 	0.078539819 	0.064795345 	0.049087387 
 trial2          	0.051050879 	0.017671458 	0.051050879 	0.051050879 	0.02552544  	0.060868356 
 trial2          	0.066758841 	0.056941368 	0.054977871 	0.041233402 	0.04712389  	0.082466803 
 trial2          	0.066758841 	0.033379421 	0.049087387 	0.062831856 	0.045160394 	0.039269909 
 trial2          	-0.023561945	0           	0           	0           	0           	0           
 trial2          	7.308129787 	12.94336128 	14.54361057 	14.08807945 	14.11949539 	12.23061275 
 trial2          	8.507825851 	1.714131474 	0.088357292 	0.003926991 	0.054977871 	0.076576322 
 trial2          	0.074612826 	0.076576322 	0.070685834 	0.080503315 	0.076576322 	0.086393796 
 trial2          	0.074612826 	0.070685834 	0.074612826 	0.074612826 	0.076576322 	0.080503315 
 trial2          	0.082466803 	0.074612826 	0.082466803 	0.080503315 	0.086393796 	0.076576322 
 trial2          	0.078539819 	0.090320788 	0.07264933  	0.078539819 	0.076576322 	0.086393796 
 trial2          	0.082466803 	0.068722337 	0.076576322 	0.088357292 	0.074612826 	0.078539819 
 trial2          	0.0844303   	0.074612826 	0.115846232 	0.078539819 	0.096211277 	0.092284285 
 trial2          	0.056941368 	0.060868356 	0.086393796 	0.107992247 	0.058904864 	0.078539819 
 trial2          	0.078539819 	0.082466803 	0.058904864 	0.080503315 	0.045160394 	0.066758841 
 trial2          	0.078539819 	0.076576322 	0.088357292 	0.076576322 	0.082466803 	0.080503315 
 trial2          	0.109955743 	0.092284285 	0.078539819 	0.109955743 	0.113882735 	0.092284285 
 trial2          	0.094247781 	0.0844303   	0.049087387 	0.078539819 	0.074612826 	0.107992247 
 trial2          	0.096211277 	0.076576322 	0.0844303   	0.100138269 	0.096211277 	0.115846232 
 trial2          	0.113882735 	0.086393796 	0.045160394 	0.082466803 	0.076576322 	0.119773217 
 trial2          	0.066758841 	0.094247781 	0.074612826 	0.076576322 	0.080503315 	0.064795345 
 trial2          	0.0844303   	0.076576322 	0.060868356 	0.086393796 	0.080503315 	0.060868356 
 trial2          	0.056941368 	0.037306413 	0.062831856 	0.062831856 	0.078539819 	0.094247781 
 trial2          	0.111919239 	0.088357292 	0.076576322 	0.062831856 	0.058904864 	0.066758841 
 trial2          	0.080503315 	0.076576322 	0.092284285 	0.078539819 	0.064795345 	0.080503315 
 trial2          	0.078539819 	0.088357292 	0.094247781 	0.100138269 	0.096211277 	0.080503315 
 trial2          	0.074612826 	0.088357292 	0.098174773 	0.088357292 	0.104065254 	0.066758841 
 trial2          	0.096211277 	0.107992247 	0.111919239 	0.0844303   	0.076576322 	0.109955743 
 trial2          	0.090320788 	0.074612826 	0.098174773 	0.07264933  	0.060868356 	0.054977871 
 trial2          	0.094247781 	0.080503315 	0.07264933  	0.096211277 	0.053014375 	0.045160394 
 trial2          	0.060868356 	0.100138269 	0.090320788 	0.104065254 	0.076576322 	0.0844303   
 trial2          	0.060868356 	0.088357292 	0.074612826 	0.070685834 	0.106028751 	0.064795345 
 trial2          	0.080503315 	0.106028751 	0.074612826 	0.060868356 	0.062831856 	0.088357292 
 trial2          	0.104065254 	0.098174773 	0.092284285 	0.074612826 	0.068722337 	0.07264933  
 trial2          	0.074612826 	0.080503315 	0.088357292 	0.068722337 	0.104065254 	0.062831856 
 trial2          	0.060868356 	0.07264933  	0.092284285 	0.082466803 	0.100138269 	0.064795345 
 trial2          	0.039269909 	0.051050879 	0.053014375 	0.066758841 	0.088357292 	0.060868356 
 trial2          	0.062831856 	0.07264933  	0.080503315 	0.070685834 	0.07264933  	0.082466803 
 trial2          	0.092284285 	0.056941368 	0.066758841 	0.102101758 	0.096211277 	0.082466803 
 trial2          	0.080503315 	0.076576322 	0.076576322 	0.088357292 	0.056941368 	0.133517683 
 trial2          	1.470658064 	3.066979885 	4.021238804 	4.441426754 	4.900884628 	5.87085104  
 trial2          	6.656249523 	7.025386333 	7.437720776 	7.950192928 	7.989462852 	8.191702843 
 trial2          	8.13476181  	8.168141365 	8.093527794 	8.105309486 	7.924667358 	8.038550377 
 trial2          	8.068002701 	8.005170822 	8.009098053 	8.069966316 	8.142615318 	8.020878792 
 trial2          	7.761697292 	8.060148239 	7.932521343 	7.981608868 	8.091564178 	8.026769638 
 trial2          	8.132798195 	8.111199379 	8.038550377 	8.005170822 	8.068002701 	8.097455025 
 trial2          	7.971791267 	8.113162994 	7.960010529 	8.018915176 	7.932521343 	8.073893547 
 trial2          	8.054258347 	8.097455025 	7.965900898 	7.922703743 	8.018915176 	8.020878792 
 trial2          	7.965900898 	8.077819824 	8.011061668 	8.011061668 	7.979645252 	8.032659531 
 trial2          	7.942338943 	7.987499237 	8.01302433  	7.944302559 	8.052294731 	8.091564178 
 trial2          	8.040513992 	8.054258347 	8.01302433  	8.0287323   	7.997316837 	7.895215034 
 trial2          	7.936448574 	7.918776989 	8.077819824 	8.056221962 	8.077819824 	7.987499237 
 trial2          	8.054258347 	7.989462852 	7.983572483 	7.961973667 	7.893251419 	8.062111855 
 trial2          	7.930557728 	7.936448574 	7.958046913 	8.040513992 	7.922703743 	7.973754883 
 trial2          	7.973754883 	7.973754883 	7.973754883 	7.973754883 	7.973754883 	7.510369778 
 trial2          	7.86183548  	8.085674286 	8.130834579 	7.960010529 	7.596763611 	7.804894447 
 trial2          	7.66941309  	7.724390984 	7.614435196 	7.567311287 	7.889324665 	7.857908726 
 trial2          	7.753843307 	7.838273525 	7.930557728 	7.683157444 	8.040513992 	7.834346771 
 trial2          	7.651741505 	7.769551277 	7.869689465 	7.793113232 	7.914849758 	7.555530548 
 trial2          	7.65959549  	8.018915176 	7.842200756 	7.645851135 	7.575165272 	7.457355499 
 trial2          	7.687084675 	7.787222862 	8.107272148 	7.639960766 	7.539822578 	7.645851135 
 trial2          	7.989462852 	7.561420918 	7.975718498 	7.720463753 	7.602654457 	7.604617596 
 trial2          	7.66941309  	7.61836195  	7.361144066 	7.677267075 	7.65959549  	7.810784817 
 trial2          	7.469136715 	7.651741505 	7.522150993 	7.522150993 	7.567311287 	7.506443024 
 trial2          	7.65370512  	7.553566933 	7.510369778 	7.492698669 	7.588909626 	7.551603317 
 trial2          	7.514297009 	7.453428745 	7.463245869 	7.412195206 	7.535895348 	7.486807823 
 trial2          	7.496625423 	7.508406639 	7.506443024 	7.504479408 	7.526077747 	7.086255074 
 trial2          	3.919136763 	2.64482832  	0.73631078  	0.337721199 	0.292560816 	0.300414801 
 trial2          	0.296487808 	0.212057501 	0.155116141 	0.149225652 	0.155116141 	0.157079637 
 trial2          	0.157079637 	0.149225652 	0.151189148 	0.149225652 	0.159043133 	0.151189148 
 trial2          	0.159043133 	0.157079637 
;
Gos	124
Gos	123
Gos	122
Gos	121
Gos	120
Gos	119
Gos	127
Gos	123
Gos	122
Gos	124
Gos	124
Gos	125
Gos	125
Gos	125
Gos	125
Gos	124
Gos	124
Gos	123
Gos	123
Gos	123
Gos	122
Gos	121
Gos	121
Gos	120
Gos	119
Gos	119
Gos	118
Gos	122
Gos	124
Gos	124
Gos	123
Gos	121
Gos	120
Gos	119
Gos	120
Gos	122
Gos	123
Gos	123
Gos	118
Gos	118
Gos	118
Gos	119
Gos	122
Gos	123
Gos	119
Gos	119
Gos	120
Gos	122
Gos	122
Gos	122
Gos	122
Gos	121
Gos	121
Gos	121
Gos	120
Gos	121
Gos	125
Gos	119
Gos	119
Gos	119
Gos	119
Gos	119
Gos	119
Gos	120
Gos	120
Gos	120
Gos	120
Gos	120
Gos	120
Gos	120
Gos	120
Gos	120
Gos	120
Gos	120
Gos	119
Gos	119
Gos	119
Gos	119
Gos	119
Gos	119
Gos	118
Gos	118
Gos	118
Gos	118
Gos	118
Gos	118
Gos	119
Gos	119
Gos	119
Gos	119
Gos	119
Gos	120
Gos	121
Gos	123
Gos	124
Gos	125
Gos	131
Gos	136
Gos	144
Gos	138
Gos	142
Gos	150
Gos	148
Gos	147
Gos	147
Gos	148
Gos	144
Gos	147
Gos	151
Gos	148
Gos	153
Gos	159
Gos	159
Gos	159
Gos	160
Gos	160
Gos	160
Gos	160
Gos	161
Gos	161
Gos	161
Gos	160
Gos	160
Gos	160
Gos	160
Gos	160
Gos	160
Gos	160
Gos	160
Gos	160
Gos	160
Gos	159
Gos	159
Gos	159
Gos	159
Gos	160
Gos	160
Gos	160
Gos	160
Gos	160
Gos	160
Gos	160
Gos	161
Gos	161
Gos	161
Gos	161
Gos	161
Gos	161
Gos	161
Gos	160
Gos	160
Gos	159
Gos	159
Gos	159
Gos	159
Gos	159
Gos	160
Gos	161
Gos	161
Gos	161
Gos	162
Gos	164
Gos	164
Gos	160
Gos	159
Gos	160
Gos	160
Gos	161
Gos	161
Gos	161
Gos	161
Gos	161
Gos	161
Gos	161
Gos	161
Gos	161
Gos	161
Gos	161
Gos	161
Gos	161
Gos	162
Gos	162
Gos	163
Gos	165
Gos	162
Gos	160
Gos	164
Gos	160
Gos	161
Gos	162
Gos	164
Gos	165
Gos	164
Gos	160
Gos	170
Gos	168
Gos	172
Gos	168
Gos	167
Gos	171
Gos	174
Gos	173
Gos	170
Gos	171
Gos	172
Gos	174
Gos	175
Gos	173
Gos	170
Gos	169
Gos	169
Gos	170
Gos	170
Gos	171
Gos	172
Gos	172
Gos	173
Gos	173
Gos	174
Gos	174
Gos	174
Gos	175
Gos	175
Gos	175
Gos	175
Gos	174
Gos	173
Gos	172
Gos	171
Gos	170
Gos	170
Gos	169
Gos	171
Gos	172
Gos	173
Gos	175
Gos	176
Gos	170
Gos	170
Gos	172
Gos	174
Gos	175
Gos	171
Gos	170
Gos	170
Gos	170
Gos	170
Gos	171
Gos	171
Gos	172
Gos	172
Gos	172
Gos	173
Gos	174
Gos	175
Gos	177
Gos	172
Gos	170
Gos	170
Gos	170
Gos	171
Gos	171
Gos	172
Gos	172
Gos	172
Gos	173
Gos	173
Gos	175
Gos	176
Gos	178
Gos	179
Gos	181
Gos	188
Gos	186
Gos	187
Gos	193
Gos	192
Gos	192
Gos	192
Gos	191
Gos	191
Gos	190
Gos	189
Gos	189
Gos	188
Gos	187
Gos	187
Gos	191
Gos	194
Gos	194
Gos	194
Gos	194
Gos	194
Gos	194
Gos	194
Gos	194
Gos	194
Gos	194
Gos	193
Gos	193
Gos	193
Gos	193
Gos	193
Gos	193
Gos	193
Gos	193
Gos	194
Gos	194
Gos	194
Gos	194
Gos	194
Gos	194
Gos	194
Gos	194
Gos	193
Gos	193
Gos	193
Gos	193
Gos	192
Gos	192
Gos	192
Gos	191
Gos	191
Gos	191
Gos	191
Gos	191
Gos	191
Gos	191
Gos	191
Gos	191
Gos	195
Gos	191
Gos	191
Gos	191
Gos	191
Gos	191
Gos	191
Gos	195
Gos	200
Gos	205
Gos	211
Gos	216
Gos	216
Gos	215
Gos	224
Gos	227
Gos	229
Gos	232
Gos	236
Gos	236
Gos	236
Gos	232
Gos	235
Gos	237
Gos	240
Gos	228
Gos	234
Gos	239
Gos	234
Gos	229
Gos	231
Gos	233
Gos	230
Gos	230
Gos	232
Gos	236
Gos	234
Gos	233
Gos	227
Gos	231
Gos	231
Gos	236
Gos	232
Gos	232
Gos	232
Gos	232
Gos	232
Gos	233
Gos	233
Gos	233
Gos	234
Gos	234
Gos	235
Gos	236
Gos	236
Gos	237
Gos	237
Gos	237
Gos	237
Gos	238
Gos	238
Gos	238
Gos	238
Gos	238
Gos	238
Gos	237
Gos	237
Gos	237
Gos	237
Gos	237
Gos	237
Gos	237
Gos	236
Gos	236
Gos	236
Gos	236
Gos	236
Gos	236
Gos	241
Gos	247
Gos	252
Gos	258
Gos	262
Gos	264
Gos	267
Gos	273
Gos	268
Gos	264
Gos	273
Gos	271
Gos	277
Gos	273
Gos	279
Gos	281
Gos	283
Gos	284
Gos	283
Gos	281
Gos	280
Gos	279
Gos	278
Gos	278
Gos	282
Gos	282
Gos	280
Gos	283
Gos	284
Gos	285
Gos	286
Gos	283
Gos	281
Gos	284
Gos	279
Gos	280
Gos	281
Gos	283
Gos	284
Gos	285
Gos	280
Gos	285
Gos	280
Gos	279
Gos	280
Gos	280
Gos	280
Gos	280
Gos	281
Gos	281
Gos	281
Gos	280
Gos	280
Gos	280
Gos	280
Gos	280
Gos	285
Gos	281
Gos	284
Gos	283
Gos	280
Gos	280
Gos	282
Gos	283
Gos	283
Gos	284
Gos	285
Gos	285
Gos	286
Gos	283
Gos	278
Gos	273
Gos	269
Gos	264
Gos	259
Gos	251
Gos	182
Gos	176
Gos	181
Gos	177
Gos	175
Gos	179
Gos	175
Gos	175
Gos	174
Gos	175
Gos	173
Gos	170
Gos	167
Gos	165
Gos	129
Gos	127
Gos	103
Gos	106
Gos	103
Gos	98
Gos	94
Gos	93
Gos	87
Gos	84
Gos	86
Gos	92
Gos	89
Gos	92
Gos	89
Gos	87
Gos	86
Gos	89
Gos	94
Gos	94
Gos	95
Gos	95
Gos	95
Gos	95
Gos	94
Gos	94
Gos	94
Gos	93
Gos	93
Gos	93
Gos	93
Gos	93
Gos	94
Gos	94
Gos	94
Gos	94
Gos	95
Gos	95
Gos	94
Gos	94
Gos	94
Gos	94
Gos	94
Gos	94
Gos	94
Gos	94
Gos	94
Gos	94
Gos	94
Gos	94
Gos	94
Gos	94
Gos	94
Gos	94
Gos	94
Gos	94
Gos	94
Gos	94
Gos	94
Gos	94
Gos	94
Gos	94
Gos	93
Gos	93
Gos	93
Gos	93
Gos	93
Gos	93
Gos	93
Gos	93
Gos	93
Gos	93
Gos	93
Gos	93
Gos	93
Gos	93
Gos	93
Gos	93
Gos	93
Gos	93
Gos	93
Gos	92
Gos	92
Gos	92
Gos	92
Gos	92
Gos	92
Gos	92
Gos	92
Gos	92
Gos	92
Gos	92
Gos	93
Gos	93
Gos	93
Gos	94
Gos	94
Gos	94
Gos	94
Gos	95
Gos	95
Gos	94
Gos	94
Gos	94
Gos	94
Gos	94
Gos	94
Gos	94
Gos	93
Gos	93
Gos	93
Gos	93
Gos	93
Gos	93
Gos	93
Gos	92
Gos	92
Gos	92
Gos	92
Gos	92
Gos	92
Gos	91
Gos	91
Gos	91
Gos	91
Gos	91
Gos	91
Gos	91
Gos	91
Gos	91
Gos	91
Gos	91
Gos	91
Gos	91
Gos	91
Gos	91
Gos	91
Gos	91
Gos	91
Gos	91
Gos	92
Gos	92
Gos	92
Gos	92
Gos	92
Gos	92
Gos	92
Gos	92
Gos	92
Gos	92
Gos	92
Gos	92
Gos	92
Gos	92
Gos	92
Gos	92
Gos	92
Gos	92
Gos	92
Gos	92
Gos	92
Gos	92
Gos	92
Gos	92
Gos	92
Gos	92
Gos	92
Gos	92
Gos	92
Gos	92
Gos	92
Gos	92
Gos	92
Gos	93
Gos	93
Gos	93
Gos	93

SS	102
SS	105
SS	103
SS	104
SS	103
SS	113
SS	115
SS	113
SS	115
SS	112
SS	112
SS	112
SS	113
SS	113
SS	115
SS	112
SS	108
SS	105
SS	106
SS	102
SS	100
SS	100
SS	100
SS	101
SS	102
SS	101
SS	101
SS	100
SS	100
SS	100
SS	101
SS	100
SS	100
SS	101
SS	101
SS	101
SS	100
SS	100
SS	97
SS	98
SS	96
SS	96
SS	98
SS	96
SS	97
SS	100
SS	100
SS	101
SS	101
SS	102
SS	102
SS	102
SS	104
SS	103
SS	104
SS	103
SS	104
SS	103
SS	103
SS	103
SS	103
SS	103
SS	103
SS	102
SS	103
SS	104
SS	103
SS	103
SS	104
SS	104
SS	104
SS	104
SS	103
SS	104
SS	103
SS	104
SS	104
SS	103
SS	104
SS	105
SS	104
SS	103
SS	103
SS	104
SS	104
SS	104
SS	103
SS	104
SS	102
SS	102
SS	103
SS	104
SS	105
SS	102
SS	101
SS	101
SS	102
SS	102
SS	104
SS	105
SS	100
SS	104
SS	102
SS	100
SS	101
SS	101
SS	98
SS	100
SS	101
SS	101
SS	100
SS	100
SS	98
SS	101
SS	101
SS	101
SS	101
SS	102
SS	102
SS	101
SS	101
SS	98
SS	97
SS	98
SS	97
SS	95
SS	95
SS	95
SS	97
SS	98
SS	101
SS	102
SS	103
SS	104
SS	101
SS	104
SS	103
SS	102
SS	103
SS	103
SS	104
SS	103
SS	102
SS	105
SS	102
SS	105
SS	103
SS	104
SS	103
SS	103
SS	103
SS	104
SS	103
SS	103
SS	103
SS	103
SS	103
SS	103
SS	104
SS	104
SS	103
SS	103
SS	102
SS	104
SS	104
SS	103
SS	103
SS	103
SS	103
SS	103
SS	104
SS	103
SS	102
SS	102
SS	103
SS	102
SS	103
SS	103
SS	103
SS	102
SS	103
SS	103
SS	104
SS	103
SS	103
SS	104
SS	103
SS	103
SS	103
SS	104
SS	102
SS	101
SS	104
SS	112
SS	113
SS	113
SS	115
SS	112
SS	113
SS	112
SS	111
SS	111
SS	111
SS	110
SS	111
SS	111
SS	111
SS	110
SS	110
SS	110
SS	110
SS	109
SS	110
SS	111
SS	111
SS	110
SS	110
SS	110
SS	109
SS	108
SS	108
SS	108
SS	106
SS	105
SS	106
SS	108
SS	108
SS	111
SS	111
SS	112
SS	101
SS	103
SS	102
SS	102
SS	102
SS	102
SS	102
SS	103
SS	102
SS	102
SS	103
SS	104
SS	101
SS	102
SS	102
SS	102
SS	103
SS	102
SS	103
SS	103
SS	102
SS	102
SS	103
SS	103
SS	103
SS	103
SS	103
SS	102
SS	102
SS	102
SS	102
SS	101
SS	101
SS	101
SS	102
SS	102
SS	101
SS	102
SS	101
SS	101
SS	101
SS	101
SS	98
SS	98
SS	100
SS	101
SS	98
SS	100
SS	101
SS	100
SS	100
SS	98
SS	98
SS	100
SS	98
SS	100
SS	98
SS	98
SS	100
SS	100
SS	98
SS	98
SS	98
SS	98
SS	98
SS	98
SS	96
SS	98
SS	98
SS	101
SS	101
SS	102
SS	103
SS	103
SS	102
SS	102
SS	103
SS	104
SS	103
SS	103
SS	103
SS	103
SS	103
SS	103
SS	104
SS	103
SS	104
SS	103
SS	103
SS	104
SS	104
SS	104
SS	103
SS	104
SS	104
SS	104
SS	103
SS	104
SS	103
SS	104
SS	103
SS	111
SS	116
SS	113
SS	116
SS	115
SS	116
SS	116
SS	108
SS	104
SS	104
SS	104
SS	103
SS	104
SS	103
SS	102
SS	103
SS	102
SS	103
SS	104
SS	103
SS	103
SS	103
SS	103
SS	103
SS	101
SS	102
SS	101
SS	101
SS	101
SS	101
SS	101
SS	100
SS	100
SS	102
SS	100
SS	100
SS	100
SS	100
SS	100
SS	101
SS	101
SS	98
SS	105
SS	108
SS	109
SS	108
SS	106
SS	106
SS	106
SS	108
SS	111
SS	112
SS	113
SS	112
SS	113
SS	115
SS	113
SS	113
SS	113
SS	115
SS	115
SS	113
SS	115
SS	115
SS	115
SS	115
SS	116
SS	115
SS	115
SS	113
SS	115
SS	116
SS	115
SS	115
SS	115
SS	116
SS	115
SS	115
SS	116
SS	117
SS	116
SS	115
SS	115
SS	115
SS	116
SS	116
SS	116
SS	113
SS	118
SS	115
SS	115
SS	115
SS	115
SS	116
SS	116
SS	116
SS	116
SS	116
SS	113
SS	115
SS	115
SS	115
SS	115
SS	115
SS	115
SS	115
SS	115
SS	115
SS	113
SS	115
SS	115
SS	113
SS	112
SS	112
SS	113
SS	116
SS	115
SS	115
SS	112
SS	112
SS	112
SS	111
SS	112
SS	111
SS	111
SS	111
SS	111
SS	111
SS	111
SS	110
SS	111
SS	111
SS	112
SS	110
SS	111
SS	112
SS	113
SS	111
SS	111
SS	110
SS	109
SS	109
SS	109
SS	108
SS	108
SS	108
SS	109
SS	109
SS	111
SS	113
SS	112
SS	113
SS	113
SS	113
SS	113
SS	113
SS	113
SS	113
SS	113
SS	113
SS	115
SS	115
SS	115
SS	113
SS	113
SS	115
SS	115
SS	116
SS	116
SS	115
SS	115
SS	115
SS	115
SS	113
SS	113
SS	113
SS	113
SS	113
SS	113
SS	113
SS	115
SS	115
SS	115
SS	113
SS	113
SS	113
SS	112
SS	113
SS	113
SS	113
SS	111
SS	111
SS	110
SS	111
SS	110
SS	111
SS	109
SS	110
SS	111
SS	110
SS	111
SS	110
SS	110
SS	109
SS	110
SS	110
SS	110
SS	110
SS	111
SS	110
SS	109
SS	108
SS	108
SS	108
SS	106
SS	106
SS	106
SS	105
SS	108
SS	108
SS	110
SS	111
SS	112
SS	112
SS	112
SS	115
SS	113
SS	113
SS	113
SS	115
SS	115
SS	113
SS	113
SS	113
SS	113
SS	113
SS	113
SS	112
SS	113
SS	113
SS	115
SS	112
SS	116
SS	116
SS	113
SS	113
SS	113
SS	112
SS	113
SS	115
SS	113
SS	113
SS	115
SS	113
SS	113
SS	113
SS	113
SS	113
SS	113
SS	115
SS	113
SS	113
SS	113
SS	113
SS	113
SS	115
SS	112
SS	111
SS	112
SS	112
SS	113
SS	113
SS	112
SS	111
SS	111
SS	111
SS	111
SS	111
SS	110
SS	110
SS	110
SS	111
SS	110
SS	110
SS	111
SS	110
SS	111
SS	109
SS	110
SS	110
SS	110
SS	110
SS	110
SS	109
SS	109
SS	108
SS	106
SS	106
SS	106
SS	106
SS	106
SS	108
SS	109
SS	110
SS	112
SS	116
SS	112
SS	113
SS	112
SS	113
SS	115
SS	112
SS	112
SS	115
SS	113
SS	115
SS	113
SS	113
SS	113
SS	115
SS	113
SS	115
SS	113
SS	115
SS	115
SS	115
SS	113
SS	116
SS	113
SS	115
SS	113
SS	113
SS	115
SS	115
SS	115
SS	113
SS	115
SS	115
SS	115
SS	115
SS	115
SS	115
SS	116
SS	113
SS	119
SS	117
SS	115
SS	115
SS	116
SS	113
SS	113
SS	116
SS	113
SS	115
SS	116
SS	115
SS	113
SS	113
SS	113
SS	116
SS	115
SS	115
SS	115
SS	112
SS	113
SS	113
SS	115
SS	113
SS	115
SS	113
SS	113
SS	112
SS	112
SS	111
SS	112
SS	112
SS	110
SS	110
SS	111
SS	110
SS	110
SS	111
SS	111
SS	110
SS	109
SS	111
SS	112
SS	110
SS	112
SS	111
SS	111
SS	111
SS	80
SS	106
SS	106
SS	106
SS	108
SS	108
SS	110
SS	110
SS	112
SS	113
SS	112
SS	116
SS	113
SS	115
SS	113
SS	115
SS	116
SS	113
SS	115
SS	115
SS	113
SS	115
SS	115
SS	115
SS	115
SS	115
SS	115
SS	115
SS	116
SS	116
SS	115
SS	115
SS	113
SS	116
SS	115
SS	113
SS	115
SS	115
SS	115
SS	115
SS	113
SS	117
SS	112
SS	113
SS	112
SS	120
SS	125
SS	126
SS	125
SS	124
SS	124
SS	124
SS	124
SS	124
SS	123
SS	122
SS	123
SS	123
SS	122
SS	122
SS	122
SS	120
SS	122
SS	122
SS	122
SS	122
SS	123
SS	125
SS	122
SS	122
SS	120
SS	119
SS	119
SS	119
SS	118
SS	119
SS	118
SS	118
SS	120
SS	120
SS	123
SS	123
SS	124
SS	124
SS	125
SS	125
SS	126
SS	125
SS	124
SS	124
SS	126
SS	124
SS	125
SS	125
SS	125
SS	125
SS	125
SS	126
SS	125
SS	125
SS	125
SS	125
SS	125
SS	122
SS	110
SS	109
SS	108
SS	108
SS	109
SS	108
SS	110
SS	110
SS	109
SS	108
SS	109
SS	109
SS	109
SS	109
SS	109
SS	109
SS	109
SS	109
SS	108
SS	108
SS	108
SS	109
SS	108
SS	108
SS	106
SS	106
SS	106
SS	108
SS	108
SS	106
SS	105
SS	106
SS	105
SS	105
SS	105
SS	105
SS	105
SS	105
SS	105
SS	105
SS	104
SS	104
SS	105
SS	104
SS	104
SS	104
SS	103
SS	103
SS	105
SS	104
SS	104
SS	102
SS	103
SS	102
SS	101
SS	102
SS	101
SS	102
SS	103
SS	104
SS	106
SS	105
SS	106
SS	106
SS	108
SS	109
SS	108
SS	108
SS	109
SS	109
SS	108
SS	108
SS	108
SS	109
SS	108
SS	109
SS	109
SS	116
SS	120
SS	120
SS	120
SS	119
SS	119
SS	116
SS	110
SS	108
SS	119
SS	120
SS	122
SS	119
SS	119
SS	120
SS	119
SS	119
SS	111
SS	108
SS	109
SS	110
SS	109
SS	109
SS	109
SS	109
SS	110
SS	109
SS	110
SS	109
SS	110
SS	108
SS	109
SS	109
SS	108
SS	110
SS	108
SS	109
SS	109
SS	109
SS	109
SS	109
SS	109
SS	106
SS	108
SS	108
SS	106
SS	108
SS	110
SS	109
SS	108
SS	108
SS	108
SS	108
SS	105
SS	105
SS	105
SS	106
SS	104
SS	105
SS	106
SS	106
SS	105
SS	105
SS	106
SS	104
SS	105
SS	105
SS	108
SS	105
SS	103
SS	103
SS	103
SS	102
SS	103
SS	103
SS	102
SS	102
SS	102
SS	106
SS	105
SS	106
SS	106
SS	109
SS	110
SS	109
SS	108
SS	110
SS	111
SS	108
SS	108
SS	108
SS	108
SS	108
SS	110
SS	109
SS	108
SS	111
SS	108
SS	110
SS	109
SS	109
SS	109
SS	109
SS	109
SS	108
SS	109
SS	109
SS	108
SS	109
SS	110
SS	109
SS	110
SS	109
SS	109
SS	108
SS	106
SS	106
SS	109
SS	108
SS	108
SS	108
SS	106
SS	105
SS	104
SS	106
SS	106
SS	106
SS	106
SS	104
SS	106
SS	104
SS	104
SS	105
SS	106
SS	104
SS	106
SS	105
SS	106
SS	105
SS	106
SS	105
SS	104
SS	104
SS	103
SS	103
SS	102
SS	102
SS	103
SS	102
SS	105
SS	106
SS	108
SS	106
SS	108
SS	108
SS	109
SS	110
SS	109
SS	110
SS	108
SS	110
SS	109
SS	108
SS	109
SS	113
SS	113
SS	113
SS	116
SS	124
SS	127
SS	125
SS	126
SS	125
SS	125
SS	124
SS	125
SS	126
SS	125
SS	126
SS	124
SS	126
SS	126
SS	126
SS	125
SS	124
SS	125
SS	126
SS	126
SS	125
SS	125
SS	125
SS	125
SS	113
SS	113
SS	113
SS	115
SS	116
SS	112
SS	112
SS	112
SS	112
SS	113
SS	113
SS	113
SS	112
SS	112
SS	112
SS	112
SS	110
SS	111
SS	108
SS	101
SS	100
SS	100
SS	100
SS	101
SS	100
SS	101
SS	100
SS	98
SS	98
SS	101
SS	100
SS	100
SS	101
SS	100
SS	97
SS	98
SS	98
SS	97
SS	96
SS	97
SS	97
SS	98
SS	102
SS	102
SS	101
SS	101
SS	104
SS	103
SS	103
SS	103
SS	104
SS	102
SS	102
SS	103
SS	116
SS	119
SS	112
SS	101
SS	126
SS	130
SS	104
SS	104
SS	103
SS	103
SS	103
SS	104
SS	103
SS	105
SS	103
SS	103
SS	103
SS	104
SS	103
SS	113
SS	115
SS	113
SS	116
SS	116
SS	115
SS	113
SS	115
SS	115
SS	113
SS	115
SS	113
SS	113
SS	115
SS	113
SS	111
SS	104
SS	103
SS	102
SS	104
SS	103
SS	103
SS	103
SS	103
SS	104
SS	103
SS	103
SS	104
SS	104
SS	104
SS	101
SS	102
SS	101
SS	102
SS	102
SS	102
SS	102
SS	102
SS	101
SS	100
SS	101
SS	101
SS	100
SS	100
SS	100
SS	100
SS	101
SS	101
SS	100
SS	98
SS	100
SS	98
SS	100
SS	100
SS	100
SS	100
SS	100
SS	98
SS	98
SS	96
SS	96
SS	96
SS	97
SS	96
SS	97
SS	97
SS	98
SS	95
SS	112
SS	126
SS	125
SS	128
SS	80
SS	94
SS	101
SS	112
SS	115
SS	113
SS	113
SS	115
SS	115
SS	115
SS	115
SS	116
SS	113
SS	113
SS	115
SS	115
SS	115
SS	115
SS	113
SS	115
SS	115
SS	116
SS	115
SS	116
SS	113
SS	113
SS	113
SS	113
SS	112
SS	113
SS	111
SS	112
SS	113
SS	115
SS	113
SS	113
SS	112
SS	112
SS	113